code/cases/bench/sd2010_nodc.raw
0,   100.00, 31, 0, 1, 50.00     / PSS(R)E-31.0    MON, MAY 22 2017  21:15
2010Äê»ªÖÐ»ª±±ÁªÍø¶¬1217(ÕýÊ½·¢²¼)  CASE NO. 214 ,CONVERTED
BY APSAL, SHANDONG UNIVERSITY, ON 2010-03-22 07:57:04 PM
127100,'¼½ÐÁ°²51    ', 525.0000,3,   2,   2,   1,1.00000,   0.0000
129133,'¼½»Ææè51    ', 525.0000,2,   2,   2,   1,1.00000, 104.3638
151801,'Â³°²¶«Õ¾10.5',  10.5000,1,   7,  18,   1,0.87464, 120.8183
151802,'Â³°²¶«Õ¾220 ', 230.0000,1,   7,  18,   1,0.89393, 126.3302
151803,'Â³°²¶«Õ¾2ºÅ ',   1.0000,1,   7,  18,   1,0.85813, 120.8368
151804,'Â³°²¶«Õ¾3ºÅ ',   1.0000,1,   7,  18,   1,0.85808, 120.8225
151805,'Â³°²ÇðÕ¾1ºÅ ',   1.0000,1,   7,  18,   1,0.83021, 105.6557
151806,'Â³°²ÇðÕ¾220 ', 230.0000,1,   7,  18,   1,0.85911, 110.1275
151807,'Â³°²ÇðÕ¾2ºÅ ',   1.0000,1,   7,  18,   1,0.83031, 105.6707
151808,'Â³°²ÇðÕ¾35  ',  38.5000,1,   7,  18,   1,0.83921, 105.6479
151809,'Â³°Ë½Ç³§1ºÅ ',  20.0000,2,   7,  18,   1,0.26357, 143.1587
151810,'Â³°Ë½Ç³§220 ', 230.0000,1,   7,  18,   1,0.26357, 143.1587
151812,'Â³°ËÀïÕ¾1ºÅ ',   1.0000,1,   7,  18,   1,0.90621, 108.6615
151813,'Â³°ËÀïÕ¾220 ', 230.0000,1,   7,  18,   1,0.93391, 113.4834
151814,'Â³°ËÀïÕ¾2ºÅ ',   1.0000,1,   7,  18,   1,0.90649, 108.5988
151815,'Â³°ËÀïÕ¾35  ',  38.5000,1,   7,  18,   1,0.91210, 108.6221
151816,'Â³°×ÑîºÓ³§02',   6.3000,1,   7,  18,   1,0.83145,  95.6426
151818,'Â³°×ÑîºÓ³§4 ',  13.8000,2,   7,  18,   1,0.85022,  98.1365
151819,'Â³°×ÑîºÓ³§4 ',   1.0000,1,   7,  18,   1,0.85022,  98.1365
151820,'Â³°×ÑîºÓ³§5 ',  13.8000,2,   7,  18,   1,0.85033,  98.1504
151821,'Â³°×ÑîºÓ³§5 ',   1.0000,1,   7,  18,   1,0.85033,  98.1504
151822,'Â³°×ÑîºÓ³§6 ',  20.0000,2,   7,  18,   1,1.00000, 113.5025
151823,'Â³°×ÑîºÓ³§7 ',  20.0000,2,   7,  18,   1,0.86983, 100.9544
151825,'Â³°×ÑîºÓ¼×22', 230.0000,1,   7,  18,   1,0.88182, 101.7110
151830,'Â³°×ÑîºÓÒÒ22', 230.0000,1,   7,  18,   1,0.88107, 101.6497
151833,'Â³°××¯Õ¾1ºÅ ',   1.0000,1,   7,  18,   1,0.90480,  98.8719
151834,'Â³°××¯Õ¾220 ', 230.0000,1,   7,  18,   1,0.92594, 102.0494
151835,'Â³°××¯Õ¾2ºÅ ',   1.0000,1,   7,  18,   1,0.90490,  98.8777
151836,'Â³°××¯Õ¾35  ',  38.5000,1,   7,  18,   1,0.90789,  98.8697
151837,'Â³°ÙÂöÕ¾1ºÅ ',   1.0000,1,   7,  18,   1,0.87210,  65.4021
151838,'Â³°ÙÂöÕ¾220 ', 230.0000,1,   7,  18,   1,0.90196,  70.3212
151839,'Â³°ÙÂöÕ¾2ºÅ ',   1.0000,1,   7,  18,   1,0.87207,  65.3976
151840,'Â³°ÙÂöÕ¾35  ',  38.5000,1,   7,  18,   1,0.87871,  65.3937
151841,'Â³±¦¶¼Õ¾1ºÅ ',   1.0000,1,   7,  18,   1,0.79315,  98.9189
151842,'Â³±¦¶¼Õ¾220 ', 230.0000,1,   7,  18,   1,0.82039, 102.9750
151843,'Â³±¦¶¼Õ¾2ºÅ ',   1.0000,1,   7,  18,   1,0.79121,  98.8202
151844,'Â³±¦¶¼Õ¾35  ',  38.5000,1,   7,  18,   1,0.79976,  98.8649
151845,'Â³±¦ÈªÕ¾1ºÅ ',   1.0000,1,   7,  18,   1,0.86022, 110.4023
151846,'Â³±¦ÈªÕ¾220 ', 230.0000,1,   7,  18,   1,0.88986, 117.0160
151847,'Â³±¦ÈªÕ¾2ºÅ ',   1.0000,1,   7,  18,   1,0.86033, 110.4109
151848,'Â³±¦ÈªÕ¾35  ',  38.5000,1,   7,  18,   1,0.87172, 110.3874
151849,'Â³±±º£Õ¾1ºÅ ',   1.0000,1,   7,  18,   1,0.73909, 100.9382
151850,'Â³±±º£Õ¾220 ', 230.0000,1,   7,  18,   1,0.77801, 104.7631
151851,'Â³±±º£Õ¾35  ',  38.5000,1,   7,  18,   1,0.73909, 100.9382
151852,'Â³±±ÂíÕ¾1ºÅ ',   1.0000,1,   7,  18,   1,0.30667, 138.3130
151853,'Â³±±ÂíÕ¾220 ', 230.0000,1,   7,  18,   1,0.33957, 140.6451
151854,'Â³±±ÂíÕ¾2ºÅ ',   1.0000,1,   7,  18,   1,0.30667, 138.3131
151855,'Â³±±ÂíÕ¾35  ',  38.5000,1,   7,  18,   1,0.30667, 138.3131
151860,'Â³±õºþÕ¾220 ', 230.0000,1,   7,  18,   1,0.94189, 121.6339
151861,'Â³±õºþÕ¾35  ',  38.5000,1,   7,  18,   1,0.93255, 120.4378
151862,'Â³±õºþÕ¾3ºÅ ',   1.0000,1,   7,  18,   1,0.93255, 120.4378
151864,'Â³±õÖÝÕ¾220 ', 230.0000,1,   7,  18,   1,0.90645,  92.6036
151866,'Â³±õÖÝÕ¾353 ',  38.5000,1,   7,  18,   1,0.93930,  92.0432
151867,'Â³±õÖÝÕ¾3ºÅ ',   1.0000,1,   7,  18,   1,0.90657,  92.0710
151874,'Â³²©É½Õ¾1ºÅ ',   1.0000,1,   7,  18,   1,0.84541,  96.3871
151875,'Â³²©É½Õ¾220 ', 230.0000,1,   7,  18,   1,0.88097, 101.5535
151876,'Â³²©É½Õ¾2ºÅ ',   1.0000,1,   7,  18,   1,0.84545,  96.3860
151877,'Â³²ÊºçÕ¾10.5',  11.0000,1,   7,  18,   1,0.86496,  65.7548
151878,'Â³²ÊºçÕ¾1ºÅ ',   1.0000,1,   7,  18,   1,0.86496,  65.7548
151879,'Â³²ÊºçÕ¾220 ', 230.0000,1,   7,  18,   1,0.88040,  67.7421
151880,'Â³²Ï×¯Õ¾1ºÅ ',   1.0000,1,   7,  18,   1,0.28945, 132.5871
151881,'Â³²Ï×¯Õ¾220 ', 230.0000,1,   7,  18,   1,0.35977, 137.3290
151882,'Â³²Ï×¯Õ¾2ºÅ ',   1.0000,1,   7,  18,   1,0.28970, 132.5750
151883,'Â³²Ï×¯Õ¾35  ',  38.5000,1,   7,  18,   1,0.29201, 132.5707
151884,'Â³²ÔÉ½Õ¾1ºÅ ',   1.0000,1,   7,  18,   1,0.88294, 112.5148
151885,'Â³²ÔÉ½Õ¾220 ', 230.0000,1,   7,  18,   1,0.88263, 115.6592
151886,'Â³²ÔÉ½Õ¾2ºÅ ',   1.0000,1,   7,  18,   1,0.88259, 112.4584
151887,'Â³²ÔÉ½Õ¾35  ',  38.5000,1,   7,  18,   1,0.89764, 112.4605
151888,'Â³²Ü³ÇÕ¾1ºÅ ',   1.0000,1,   7,  18,   1,0.90145,  95.2424
151889,'Â³²Ü³ÇÕ¾220 ', 230.0000,1,   7,  18,   1,0.91546,  99.4493
151890,'Â³²Ü³ÇÕ¾2ºÅ ',   1.0000,1,   7,  18,   1,0.90202,  95.1696
151891,'Â³²Ü³ÇÕ¾35  ',  38.5000,1,   7,  18,   1,0.91086,  95.1880
151892,'Â³²ýÒØÕ¾1ºÅ ',   1.0000,1,   7,  18,   1,0.79760, 101.3562
151893,'Â³²ýÒØÕ¾220 ', 230.0000,1,   7,  18,   1,0.84720, 107.8876
151894,'Â³²ýÒØÕ¾2ºÅ ',   1.0000,1,   7,  18,   1,0.79889, 101.4870
151895,'Â³²ýÒØÕ¾35  ',  38.5000,1,   7,  18,   1,0.80718, 101.3940
151896,'Â³³¤ÇåÕ¾220 ', 230.0000,1,   7,  18,   1,0.91257,  54.4303
151897,'Â³³¤ÇåÕ¾2ºÅ ',   1.0000,1,   7,  18,   1,0.91194,  54.1024
151898,'Â³³¤ÇåÕ¾352 ',  38.5000,1,   7,  18,   1,0.94287,  54.0817
151899,'Â³³¤ÇåÕ¾353 ',  38.5000,1,   7,  18,   1,0.94438,  54.1495
151900,'Â³³¤ÇåÕ¾3ºÅ ',   1.0000,1,   7,  18,   1,0.91158,  54.1576
151906,'Â³³¤ÇåÕ¾500 ', 525.0000,1,   7,  18,   1,0.91377,  57.9517
151907,'Â³³¤É×Õ¾11  ',  11.0000,1,   7,  18,   1,0.88508, 103.8649
151908,'Â³³¤É×Õ¾1ºÅ ',   1.0000,1,   7,  18,   1,0.88530, 103.8886
151909,'Â³³¤É×Õ¾220 ', 230.0000,1,   7,  18,   1,0.90592, 106.3603
151910,'Â³³¤É×Õ¾2ºÅ ',   1.0000,1,   7,  18,   1,0.88491, 103.8452
151911,'Â³³£ÁÖÕ¾1ºÅ ',   1.0000,1,   7,  18,   1,0.86465, 112.0268
151912,'Â³³£ÁÖÕ¾220 ', 230.0000,1,   7,  18,   1,0.89414, 117.8441
151913,'Â³³£ÁÖÕ¾35  ',  38.5000,1,   7,  18,   1,0.87832, 112.0001
151914,'Â³³µµÀÕ¾1ºÅ ',   1.0000,1,   7,  18,   1,0.28952, 133.5246
151915,'Â³³µµÀÕ¾220 ', 230.0000,1,   7,  18,   1,0.36792, 137.9493
151916,'Â³³µµÀÕ¾2ºÅ ',   1.0000,1,   7,  18,   1,0.28818, 133.4616
151917,'Â³³µµÀÕ¾35  ',  38.5000,1,   7,  18,   1,0.29130, 133.4769
151918,'Â³³µÍõÕ¾1ºÅ ',   1.0000,1,   7,  18,   1,0.89058,  89.0486
151919,'Â³³µÍõÕ¾220 ', 230.0000,1,   7,  18,   1,0.91044,  91.5215
151920,'Â³³µÍõÕ¾2ºÅ ',   1.0000,1,   7,  18,   1,0.89074,  89.0349
151921,'Â³³µÍõÕ¾35  ',  38.5000,1,   7,  18,   1,0.89346,  89.0412
151922,'Â³³¿Ãù3ºÅÖÐ ',   1.0000,1,   7,  18,   1,0.76118,  95.9895
151923,'Â³³¿ÃùÈÈµç11', 115.0000,1,   7,  18,   1,0.74068,  92.4027
151924,'Â³³¿ÃùÈÈµç22', 230.0000,1,   7,  18,   1,0.79923, 101.2700
151925,'Â³³¿ÃùÈÈµç3 ',  15.7500,2,   7,  18,   1,0.76118,  95.9895
151926,'Â³ÜÝÆ½³§01ºÅ',   1.0000,1,   7,  18,   1,0.87751,  38.9185
151927,'Â³ÜÝÆ½³§02ºÅ',   1.0000,1,   7,  18,   1,0.87751,  38.9185
151928,'Â³ÜÝÆ½³§110 ', 115.0000,1,   7,  18,   1,0.86557,  37.6798
151929,'Â³ÜÝÆ½³§220 ', 230.0000,1,   7,  18,   1,0.88994,  40.1171
151930,'Â³ÜÝÆ½³§35  ',  38.5000,1,   7,  18,   1,0.91204,  43.5296
151931,'Â³ÜÝÆ½³§6.3 ',   6.3000,1,   7,  18,   1,0.87751,  38.9185
151932,'Â³ÜÝÆ½³§6ºÅ ',  13.8000,2,   7,  18,   1,0.86557,  37.6798
151933,'Â³ÜÝÆ½³§7ºÅ ',  13.8000,2,   7,  18,   1,0.90872,  43.1606
151934,'Â³ÜÝÆ½³§7ºÅ ',   1.0000,1,   7,  18,   1,0.91204,  43.5296
151935,'Â³ÜÝÆ½³§8ºÅ ',  13.8000,2,   7,  18,   1,0.87877,  39.3763
151936,'Â³ÜÝÆ½³§9ºÅ ',  13.8000,2,   7,  18,   1,0.88994,  40.1171
151937,'Â³³åÉ½Õ¾1ºÅ ',   1.0000,1,   7,  18,   1,0.85752,  96.2519
151938,'Â³³åÉ½Õ¾220 ', 230.0000,1,   7,  18,   1,0.88325, 101.5431
151939,'Â³³åÉ½Õ¾35  ',  38.5000,1,   7,  18,   1,0.86858,  96.2178
151940,'Â³³çÒåÕ¾1ºÅ ',   1.0000,1,   7,  18,   1,0.15390, 146.3442
151941,'Â³³çÒåÕ¾220 ', 230.0000,1,   7,  18,   1,0.20227, 149.2614
151942,'Â³³çÒåÕ¾2ºÅ ',   1.0000,1,   7,  18,   1,0.15418, 146.3542
151943,'Â³³çÒåÕ¾35  ',  38.5000,1,   7,  18,   1,0.15485, 146.3414
151945,'Â³´ó°²Õ¾1ºÅ ',   1.0000,1,   7,  18,   1,0.93218, 108.1101
151946,'Â³´ó°²Õ¾220 ', 230.0000,1,   7,  18,   1,0.94175, 110.6565
151947,'Â³´ó°²Õ¾35  ',  38.5000,1,   7,  18,   1,0.93807, 108.1026
151955,'Â³´óÐËÕ¾1ºÅ ',   1.0000,1,   7,  18,   1,0.78304,  99.5671
151956,'Â³´óÐËÕ¾220 ', 230.0000,1,   7,  18,   1,0.83205, 106.7503
151958,'Â³´óÐËÕ¾35  ',  38.5000,1,   7,  18,   1,0.79548,  99.5422
151959,'Â³´óÑîÕ¾1ºÅ ',   1.0000,1,   7,  18,   1,0.91172,  88.9573
151960,'Â³´óÑîÕ¾220 ', 230.0000,1,   7,  18,   1,0.92670,  91.6433
151961,'Â³´óÑîÕ¾35  ',  38.5000,1,   7,  18,   1,0.91742,  88.9602
151963,'Â³´óÔóÕ¾220 ', 230.0000,1,   7,  18,   1,0.70274, 115.8912
151964,'Â³´óÔóÕ¾2ºÅ ',   1.0000,1,   7,  18,   1,0.69827, 115.5011
151966,'Â³´óÔóÕ¾352 ',  38.5000,1,   7,  18,   1,0.72661, 115.4765
151973,'Â³´óÔóÕ¾500 ', 525.0000,1,   7,  18,   1,0.72149, 118.2675
151974,'Â³´óÕýÕ¾10.5',  10.5000,1,   7,  18,   1,0.85260,  61.6863
151976,'Â³´óÕýÕ¾220 ', 230.0000,1,   7,  18,   1,0.88742,  69.0063
151977,'Â³´óÕýÕ¾2ºÅ ',   1.0000,1,   7,  18,   1,0.83634,  61.6957
151978,'Â³´ó×¯Õ¾1ºÅ ',   1.0000,1,   7,  18,   1,0.77164, 119.2848
151979,'Â³´ó×¯Õ¾220 ', 230.0000,1,   7,  18,   1,0.80664, 123.4137
151980,'Â³´ó×¯Õ¾2ºÅ ',   1.0000,1,   7,  18,   1,0.77181, 119.2965
151981,'Â³´ó×¯Õ¾35  ',  38.5000,1,   7,  18,   1,0.77397, 119.2951
151982,'Â³´ó×¯Õ¾3ºÅ ',   1.0000,1,   7,  18,   1,0.77181, 119.3129
151983,'Â³µ¥³ÇÕ¾1ºÅ ',   1.0000,1,   7,  18,   1,0.89533,  94.6158
151984,'Â³µ¥³ÇÕ¾220 ', 230.0000,1,   7,  18,   1,0.90844,  99.0890
151985,'Â³µ¥³ÇÕ¾2ºÅ ',   1.0000,1,   7,  18,   1,0.89455,  94.5405
151986,'Â³µ¥³ÇÕ¾35  ',  38.5000,1,   7,  18,   1,0.90312,  94.5658
151987,'Â³µ³¼Ò×¯Õ¾10',  10.5000,1,   7,  18,   1,0.86961,  46.5703
151989,'Â³µ³¼Ò×¯Õ¾1 ',   1.0000,1,   7,  18,   1,0.85389,  46.5900
151990,'Â³µ³¼Ò×¯Õ¾22', 230.0000,1,   7,  18,   1,0.88624,  51.6695
151991,'Â³µ³¼Ò×¯Õ¾2 ',   1.0000,1,   7,  18,   1,0.85388,  46.5908
151992,'Â³µÂÖÝÕ¾220 ', 230.0000,1,   7,  18,   1,0.90169,  66.8514
151993,'Â³µÂÖÝÕ¾2ºÅ ',   1.0000,1,   7,  18,   1,0.89852,  66.5863
151994,'Â³µÂÖÝÕ¾352 ',  38.5000,1,   7,  18,   1,0.92933,  66.5600
151995,'Â³µÂÖÝÕ¾353 ',  38.5000,1,   7,  18,   1,0.90069,  66.5883
151996,'Â³µÂÖÝÕ¾3ºÅ ',   1.0000,1,   7,  18,   1,0.90069,  66.5883
152001,'Â³µÂÖÝÕ¾500 ', 525.0000,1,   7,  18,   1,0.91414,  68.5569
152002,'Â³¶¡×¯Õ¾1ºÅ ',   1.0000,1,   7,  18,   1,0.84398,  91.8744
152003,'Â³¶¡×¯Õ¾220 ', 230.0000,1,   7,  18,   1,0.85053,  92.6491
152004,'Â³¶¡×¯Õ¾2ºÅ ',   1.0000,1,   7,  18,   1,0.84398,  91.8744
152005,'Â³¶¡×¯Õ¾35  ',  38.5000,1,   7,  18,   1,0.84398,  91.8744
152006,'Â³¶«³ÇÕ¾10.5',  11.0000,1,   7,  18,   1,0.81206,  85.5271
152007,'Â³¶«³ÇÕ¾1ºÅ ',   1.0000,1,   7,  18,   1,0.80634,  85.6463
152008,'Â³¶«³ÇÕ¾220 ', 230.0000,1,   7,  18,   1,0.84882,  90.5597
152009,'Â³¶«³ÇÕ¾2ºÅ ',   1.0000,1,   7,  18,   1,0.80570,  85.4268
152010,'Â³¶«¸ÛÕ¾11  ',  11.0000,1,   7,  18,   1,0.88198, 123.7785
152011,'Â³¶«¸ÛÕ¾1ºÅ ',   1.0000,1,   7,  18,   1,0.88204, 123.7929
152012,'Â³¶«¸ÛÕ¾220 ', 230.0000,1,   7,  18,   1,0.90562, 126.8358
152013,'Â³¶«¸ÛÕ¾2ºÅ ',   1.0000,1,   7,  18,   1,0.88192, 123.7634
152014,'Â³¶«º£³§01ºÅ',   6.3000,1,   7,  18,   1,0.25872, 153.8748
152015,'Â³¶«º£³§02ºÅ',   6.3000,1,   7,  18,   1,0.25872, 153.8748
152016,'Â³¶«º£³§02ÖÐ',   6.3000,1,   7,  18,   1,0.25872, 153.8748
152017,'Â³¶«º£³§1ºÅ ',  13.8000,2,   7,  18,   1,0.25872, 153.8748
152018,'Â³¶«º£³§220 ', 230.0000,1,   7,  18,   1,0.25872, 153.8748
152019,'Â³¶«º£³§2ºÅ ',  13.8000,2,   7,  18,   1,0.25651, 153.3872
152020,'Â³¶«º£³§3ºÅ ',  18.0000,2,   7,  18,   1,0.29985, 178.1124
152021,'Â³¶«º£³§4ºÅ ',  18.0000,2,   7,  18,   1,0.29985, 178.1124
152022,'Â³¶«º£³§6.3 ',   6.3000,1,   7,  18,   1,0.25872, 153.8748
152023,'Â³¶«½­Õ¾1ºÅ ',   1.0000,1,   7,  18,   1,0.12136, 141.8668
152024,'Â³¶«½­Õ¾220 ', 230.0000,1,   7,  18,   1,0.25563, 149.6530
152025,'Â³¶«½­Õ¾2ºÅ ',   1.0000,1,   7,  18,   1,0.12007, 141.7495
152026,'Â³¶«½­Õ¾35  ',  38.5000,1,   7,  18,   1,0.12283, 141.7789
152027,'Â³¶«ÃÅÕ¾10.5',  10.5000,1,   7,  18,   1,0.87806,  63.5158
152028,'Â³¶«ÃÅÕ¾1ºÅ ',   1.0000,1,   7,  18,   1,0.85468,  63.4590
152029,'Â³¶«ÃÅÕ¾220 ', 230.0000,1,   7,  18,   1,0.87837,  67.2585
152030,'Â³¶«ÃÅÕ¾2ºÅ ',   1.0000,1,   7,  18,   1,0.85503,  63.6157
152032,'Â³¶«Ã÷Õ¾220 ', 230.0000,1,   7,  18,   1,0.93425, 101.8536
152033,'Â³¶«Ã÷Õ¾2ºÅ ',   1.0000,1,   7,  18,   1,0.91606,  98.6441
152034,'Â³¶«Ã÷Õ¾35  ',  38.5000,1,   7,  18,   1,0.92002,  98.6393
152035,'Â³¶«Ã÷Õ¾3ºÅ ',   1.0000,1,   7,  18,   1,0.91597,  98.6468
152037,'Â³¶­¼ÒÕ¾1ºÅ ',   1.0000,1,   7,  18,   1,0.79910, 122.3553
152038,'Â³¶­¼ÒÕ¾220 ', 230.0000,1,   7,  18,   1,0.80956, 123.5375
152039,'Â³¶­¼ÒÕ¾2ºÅ ',   1.0000,1,   7,  18,   1,0.79910, 122.3549
152040,'Â³¶­¼ÒÕ¾35  ',  38.5000,1,   7,  18,   1,0.79910, 122.3551
152041,'Â³¶ÅÃíÕ¾1ºÅ ',   1.0000,1,   7,  18,   1,0.92186, 118.2202
152042,'Â³¶ÅÃíÕ¾220 ', 230.0000,1,   7,  18,   1,0.94269, 121.1171
152043,'Â³¶ÅÃíÕ¾2ºÅ ',   1.0000,1,   7,  18,   1,0.92147, 118.1458
152044,'Â³¶ÅÃíÕ¾35  ',  38.5000,1,   7,  18,   1,0.92167, 118.1847
152046,'Â³¶Å×¯Õ¾220 ', 230.0000,1,   7,  18,   1,0.93818, 102.2801
152047,'Â³¶Å×¯Õ¾35  ',  38.5000,1,   7,  18,   1,0.93545,  99.4247
152048,'Â³¶Å×¯Õ¾3ºÅ ',   1.0000,1,   7,  18,   1,0.92941,  99.4338
152049,'Â³¶Ë×¯Õ¾1ºÅ ',   1.0000,1,   7,  18,   1,0.88897,  38.1078
152050,'Â³¶Ë×¯Õ¾220 ', 230.0000,1,   7,  18,   1,0.91010,  41.3818
...
0 / END OF BUS DATA, BEGIN LOAD DATA
151809,'1 ',0,   7,  18,     0.000,     0.000,     0.000,     0.000,    47.570,   -47.570,   1
151818,'1 ',0,   7,  18,     0.000,     0.000,     0.000,     0.000,    10.686,    -9.498,   1
151820,'1 ',0,   7,  18,     0.000,     0.000,     0.000,     0.000,    10.684,    -9.496,   1
151822,'1 ',1,   7,  18,     0.000,     0.000,     0.000,     0.000,    18.000,   -18.000,   1
151823,'1 ',1,   7,  18,     0.000,     0.000,     0.000,     0.000,    20.737,   -20.737,   1
151923,'1 ',1,   7,  18,     0.000,     0.000,    50.554,    84.931,    60.103,    67.315,   1
151925,'1 ',0,   7,  18,     0.000,     0.000,     0.000,     0.000,    17.470,   -16.306,   1
151928,'1 ',1,   7,  18,     0.000,     0.000,     0.000,     0.000,   257.259,  -134.755,   1
151929,'1 ',1,   7,  18,     0.000,     0.000,     0.000,     0.000,   300.552,  -144.496,   1
151932,'1 ',0,   7,  18,     0.000,     0.000,     0.000,     0.000,    15.926,   -14.701,   1
151933,'1 ',1,   7,  18,     0.000,     0.000,     0.000,     0.000,    14.516,   -13.400,   1
151935,'1 ',1,   7,  18,     0.000,     0.000,     0.000,     0.000,    15.412,   -14.226,   1
151936,'1 ',0,   7,  18,     0.000,     0.000,     0.000,     0.000,    15.028,   -13.872,   1
152017,'1 ',0,   7,  18,     0.000,     0.000,     0.000,     0.000,    11.926,   -10.601,   1
152018,'1 ',1,   7,  18,     0.000,     0.000,     0.000,     0.000,   463.802,  -198.772,   1
152019,'1 ',1,   7,  18,     0.000,     0.000,     0.000,     0.000,    12.118,   -10.772,   1
152020,'1 ',1,   7,  18,     0.000,     0.000,     0.000,     0.000,    17.024,   -14.592,   1
152021,'1 ',1,   7,  18,     0.000,     0.000,     0.000,     0.000,    17.024,   -14.592,   1
152074,'1 ',1,   7,  18,     0.000,     0.000,     0.000,     0.000,    36.000,   -36.000,   1
152076,'1 ',1,   7,  18,     0.000,     0.000,     0.000,     0.000,    36.000,   -36.000,   1
152191,'1 ',1,   7,  18,     0.000,     0.000,     0.000,     0.000,     9.231,    -9.231,   1
152194,'1 ',1,   7,  18,     0.000,     0.000,     0.000,     0.000,     9.232,    -9.232,   1
152196,'1 ',1,   7,  18,     0.000,     0.000,     0.000,     0.000,    20.000,   -18.000,   1
152197,'1 ',1,   7,  18,     0.000,     0.000,     0.000,     0.000,    21.994,   -21.994,   1
152198,'1 ',1,   7,  18,     0.000,     0.000,     0.000,     0.000,    20.000,   -20.000,   1
152200,'1 ',1,   7,  18,     0.000,     0.000,     0.000,     0.000,    22.047,   -22.047,   1
152201,'1 ',1,   7,  18,     0.000,     0.000,     0.000,     0.000,   330.457,  -158.619,   1
152230,'1 ',0,   7,  18,     0.000,     0.000,     0.000,     0.000,    20.001,   -18.948,   1
152232,'1 ',0,   7,  18,     0.000,     0.000,     0.000,     0.000,    20.001,   -18.948,   1
152234,'1 ',1,   7,  18,     0.000,     0.000,     0.000,     0.000,    19.000,   -18.000,   1
152235,'1 ',1,   7,  18,     0.000,     0.000,     0.000,     0.000,    18.000,   -18.000,   1
152242,'1 ',1,   7,  18,     0.000,     0.000,     0.000,     0.000,    38.000,   -38.000,   1
152244,'1 ',1,   7,  18,     0.000,     0.000,     0.000,     0.000,    39.905,   -39.905,   1
152251,'1 ',1,   7,  18,     0.000,     0.000,     0.000,     0.000,    15.305,   -12.244,   1
152252,'1 ',1,   7,  18,     0.000,     0.000,     0.000,     0.000,    45.733,   -14.863,   1
152253,'1 ',1,   7,  18,     0.000,     0.000,     0.000,     0.000,    15.174,   -12.139,   1
152254,'1 ',1,   7,  18,     0.000,     0.000,     0.000,     0.000,    17.605,   -14.084,   1
152281,'1 ',1,   7,  18,     0.000,     0.000,     0.000,     0.000,    15.000,   -13.000,   1
152282,'1 ',1,   7,  18,     0.000,     0.000,     0.000,     0.000,    15.000,   -13.000,   1
152283,'1 ',1,   7,  18,     0.000,     0.000,     0.000,     0.000,    38.000,   -38.000,   1
152286,'1 ',1,   7,  18,     0.000,     0.000,     0.000,     0.000,    38.000,   -38.000,   1
152290,'1 ',0,   7,  18,     0.000,     0.000,     0.000,     0.000,    19.952,   -19.952,   1
152297,'1 ',1,   7,  18,     0.000,     0.000,     0.000,     0.000,    18.000,   -18.000,   1
152298,'1 ',1,   7,  18,     0.000,     0.000,     0.000,     0.000,    20.275,   -20.275,   1
152299,'1 ',0,   7,  18,     0.000,     0.000,     0.000,     0.000,    19.952,   -19.952,   1
152326,'1 ',1,   7,  18,     0.000,     0.000,     0.000,     0.000,    18.000,   -18.000,   1
152329,'1 ',1,   7,  18,     0.000,     0.000,     0.000,     0.000,    18.000,   -18.000,   1
152334,'1 ',1,   7,  18,     0.000,     0.000,     0.000,     0.000,     9.193,    -8.172,   1
152336,'1 ',1,   7,  18,     0.000,     0.000,     0.000,     0.000,     9.740,    -8.658,   1
152339,'1 ',1,   7,  18,     0.000,     0.000,     0.000,     0.000,    20.406,   -20.406,   1
152340,'1 ',1,   7,  18,     0.000,     0.000,     0.000,     0.000,    20.826,   -20.826,   1
152353,'1 ',1,   7,  18,     0.000,     0.000,     0.000,     0.000,     9.235,    -8.209,   1
152355,'1 ',1,   7,  18,     0.000,     0.000,     0.000,     0.000,   402.629,  -109.604,   1
152356,'1 ',1,   7,  18,     0.000,     0.000,     0.000,     0.000,     9.235,    -8.209,   1
152358,'1 ',1,   7,  18,     0.000,     0.000,     0.000,     0.000,    73.780,   -25.296,   1
152359,'1 ',1,   7,  18,     0.000,     0.000,     0.000,     0.000,     9.773,    -8.687,   1
152405,'1 ',1,   7,  18,     0.000,     0.000,     0.000,     0.000,     9.000,    -8.000,   1
152408,'1 ',1,   7,  18,     0.000,     0.000,     0.000,     0.000,     9.825,    -8.734,   1
152439,'1 ',1,   7,  18,     0.000,     0.000,     0.000,     0.000,    18.000,   -18.000,   1
152441,'1 ',0,   7,  18,     0.000,     0.000,     0.000,     0.000,    18.000,   -18.000,   1
152442,'1 ',1,   7,  18,     0.000,     0.000,     0.000,     0.000,    19.889,   -19.889,   1
152443,'1 ',1,   7,  18,     0.000,     0.000,     0.000,     0.000,    19.889,   -19.889,   1
152453,'1 ',1,   7,  18,     0.000,     0.000,     0.000,     0.000,    18.000,   -18.000,   1
152454,'1 ',1,   7,  18,     0.000,     0.000,     0.000,     0.000,    18.000,   -18.000,   1
152531,'1 ',1,   7,  18,     0.000,     0.000,     0.000,     0.000,     9.000,    -8.000,   1
152533,'1 ',1,   7,  18,     0.000,     0.000,     0.000,     0.000,     9.000,    -9.000,   1
152535,'1 ',1,   7,  18,     0.000,     0.000,     0.000,     0.000,     9.000,    -8.000,   1
152537,'1 ',1,   7,  18,     0.000,     0.000,     0.000,     0.000,     9.000,    -8.000,   1
152558,'1 ',1,   7,  18,     0.000,     0.000,     0.000,     0.000,    38.772,   -38.772,   1
152560,'1 ',1,   7,  18,     0.000,     0.000,     0.000,     0.000,    38.772,   -38.772,   1
152561,'1 ',1,   7,  18,     0.000,     0.000,     0.000,     0.000,    38.772,   -38.772,   1
152562,'1 ',1,   7,  18,     0.000,     0.000,     0.000,     0.000,    38.772,   -38.772,   1
152575,'1 ',0,   7,  18,     0.000,     0.000,     0.000,     0.000,    10.061,    -8.943,   1
152578,'1 ',0,   7,  18,     0.000,     0.000,     0.000,     0.000,    10.061,    -8.943,   1
152579,'1 ',1,   7,  18,     0.000,     0.000,     0.000,     0.000,    18.000,   -18.000,   1
152580,'1 ',1,   7,  18,     0.000,     0.000,     0.000,     0.000,    19.970,   -19.970,   1
152601,'1 ',0,   7,  18,     0.000,     0.000,     0.000,     0.000,    10.460,    -8.136,   1
152603,'1 ',1,   7,  18,     0.000,     0.000,     0.000,     0.000,    10.527,    -8.187,   1
152605,'1 ',1,   7,  18,     0.000,     0.000,     0.000,     0.000,     9.000,    -8.000,   1
152606,'1 ',1,   7,  18,     0.000,     0.000,     0.000,     0.000,     9.000,    -8.000,   1
152607,'1 ',1,   7,  18,     0.000,     0.000,     0.000,     0.000,     9.976,    -8.867,   1
152642,'1 ',0,   7,  18,     0.000,     0.000,     0.000,     0.000,     9.888,    -8.652,   1
152644,'1 ',0,   7,  18,     0.000,     0.000,     0.000,     0.000,    16.889,   -15.683,   1
152645,'1 ',1,   7,  18,     0.000,     0.000,     0.000,     0.000,    14.942,   -13.875,   1
152646,'1 ',1,   7,  18,     0.000,     0.000,     0.000,     0.000,    14.939,   -13.872,   1
152648,'1 ',0,   7,  18,     0.000,     0.000,     0.000,     0.000,    16.889,   -15.683,   1
152660,'1 ',1,   7,  18,     0.000,     0.000,     0.000,     0.000,    18.000,   -18.000,   1
152662,'1 ',0,   7,  18,     0.000,     0.000,     0.000,     0.000,    18.565,   -18.565,   1
152743,'1 ',1,   7,  18,     0.000,     0.000,     0.000,     0.000,     5.000,    -3.500,   1
152745,'1 ',1,   7,  18,     0.000,     0.000,     0.000,     0.000,     5.000,    -3.500,   1
152746,'1 ',1,   7,  18,     0.000,     0.000,     0.000,     0.000,     9.501,    -8.445,   1
152748,'1 ',0,   7,  18,     0.000,     0.000,     0.000,     0.000,     9.954,    -8.848,   1
152779,'1 ',0,   7,  18,     0.000,     0.000,     0.000,     0.000,    22.534,   -22.534,   1
152781,'1 ',0,   7,  18,     0.000,     0.000,     0.000,     0.000,    22.534,   -22.534,   1
152837,'1 ',1,   7,  18,     0.000,     0.000,     0.000,     0.000,    18.000,   -16.000,   1
152839,'1 ',0,   7,  18,     0.000,     0.000,     0.000,     0.000,    19.622,   -18.532,   1
152840,'1 ',1,   7,  18,     0.000,     0.000,     0.000,     0.000,    18.000,   -16.000,   1
152841,'1 ',0,   7,  18,     0.000,     0.000,     0.000,     0.000,    19.622,   -17.442,   1
152874,'1 ',1,   7,  18,     0.000,     0.000,     0.000,     0.000,    22.000,   -20.000,   1
152876,'1 ',1,   7,  18,     0.000,     0.000,     0.000,     0.000,    22.000,   -20.000,   1
152877,'1 ',1,   7,  18,     0.000,     0.000,     0.000,     0.000,    36.000,   -36.000,   1
152878,'1 ',1,   7,  18,     0.000,     0.000,     0.000,     0.000,    36.000,   -36.000,   1
152932,'1 ',1,   7,  18,     0.000,     0.000,     0.000,     0.000,    14.303,   -11.238,   1
152935,'1 ',0,   7,  18,     0.000,     0.000,     0.000,     0.000,    14.963,   -11.757,   1
152937,'1 ',1,   7,  18,     0.000,     0.000,     0.000,     0.000,    18.000,   -18.000,   1
152938,'1 ',1,   7,  18,     0.000,     0.000,     0.000,     0.000,    19.501,   -19.501,   1
152950,'1 ',1,   7,  18,     0.000,     0.000,     0.000,     0.000,    14.000,   -12.000,   1
152952,'1 ',1,   7,  18,     0.000,     0.000,     0.000,     0.000,    14.000,   -12.000,   1
152965,'1 ',0,   7,  18,     0.000,     0.000,     0.000,     0.000,    10.128,   -10.128,   1
152967,'1 ',1,   7,  18,     0.000,     0.000,     0.000,     0.000,    20.000,   -20.000,   1
152968,'1 ',1,   7,  18,     0.000,     0.000,     0.000,     0.000,    20.000,   -20.000,   1
152979,'1 ',0,   7,  18,     0.000,     0.000,     0.000,     0.000,    19.221,   -19.221,   1
152981,'1 ',1,   7,  18,     0.000,     0.000,     0.000,     0.000,    18.000,   -18.000,   1
152982,'1 ',1,   7,  18,     0.000,     0.000,     0.000,     0.000,    18.000,   -18.000,   1
152983,'1 ',1,   7,  18,     0.000,     0.000,     0.000,     0.000,    19.517,   -19.517,   1
152988,'1 ',1,   7,  18,     0.000,     0.000,     0.000,     0.000,    18.000,   -18.000,   1
152989,'1 ',0,   7,  18,     0.000,     0.000,     0.000,     0.000,    18.000,   -18.000,   1
152997,'1 ',1,   7,  18,     0.000,     0.000,     0.000,     0.000,    15.000,   -14.000,   1
152999,'1 ',0,   7,  18,     0.000,     0.000,     0.000,     0.000,    16.140,   -15.064,   1
153045,'1 ',0,   7,  18,     0.000,     0.000,     0.000,     0.000,    14.237,   -13.141,   1
153048,'1 ',0,   7,  18,     0.000,     0.000,     0.000,     0.000,     4.149,    -3.112,   1
153050,'1 ',0,   7,  18,     0.000,     0.000,     0.000,     0.000,     4.149,    -3.112,   1
153051,'1 ',0,   7,  18,     0.000,     0.000,     0.000,     0.000,     4.149,    -3.112,   1
153052,'1 ',0,   7,  18,     0.000,     0.000,     0.000,     0.000,     4.149,    -3.112,   1
153097,'1 ',1,   7,  18,     0.000,     0.000,     0.000,     0.000,     9.000,    -8.000,   1
153099,'1 ',0,   7,  18,     0.000,     0.000,     0.000,     0.000,     9.000,    -8.000,   1
153100,'1 ',1,   7,  18,     0.000,     0.000,     0.000,     0.000,    20.000,   -20.000,   1
153101,'1 ',1,   7,  18,     0.000,     0.000,     0.000,     0.000,    20.000,   -20.000,   1
153144,'1 ',1,   7,  18,     0.000,     0.000,     0.000,     0.000,    20.624,   -14.437,   1
153145,'1 ',0,   7,  18,     0.000,     0.000,     0.000,     0.000,    23.331,   -16.332,   1
153146,'1 ',1,   7,  18,     0.000,     0.000,     0.000,     0.000,    38.000,   -38.000,   1
153148,'1 ',0,   7,  18,     0.000,     0.000,     0.000,     0.000,    40.921,   -40.921,   1
153160,'1 ',1,   7,  18,     0.000,     0.000,     0.000,     0.000,    18.000,   -18.000,   1
153162,'1 ',1,   7,  18,     0.000,     0.000,     0.000,     0.000,    18.000,   -18.000,   1
153163,'1 ',1,   7,  18,     0.000,     0.000,     0.000,     0.000,    36.000,   -36.000,   1
153164,'1 ',1,   7,  18,     0.000,     0.000,     0.000,     0.000,    36.000,   -36.000,   1
153235,'1 ',1,   7,  18,     0.000,     0.000,     0.000,     0.000,     3.800,    -3.000,   1
153236,'1 ',1,   7,  18,     0.000,     0.000,     0.000,     0.000,     4.000,    -3.500,   1
153240,'1 ',1,   7,  18,     0.000,     0.000,     0.000,     0.000,    15.597,   -14.557,   1
153242,'1 ',1,   7,  18,     0.000,     0.000,     0.000,     0.000,   298.710,  -149.355,   1
153243,'1 ',1,   7,  18,     0.000,     0.000,     0.000,     0.000,    15.597,   -14.557,   1
153245,'1 ',1,   7,  18,     0.000,     0.000,     0.000,     0.000,    15.636,   -14.593,   1
153280,'1 ',1,   7,  18,     0.000,     0.000,     0.000,     0.000,    20.000,   -20.000,   1
153282,'1 ',1,   7,  18,     0.000,     0.000,     0.000,     0.000,    21.989,   -21.989,   1
153311,'1 ',1,   7,  18,     0.000,     0.000,     0.000,     0.000,   392.696,  -183.258,   1
153312,'1 ',1,   7,  18,     0.000,     0.000,     0.000,     0.000,    17.863,   -14.290,   1
153316,'1 ',1,   7,  18,     0.000,     0.000,     0.000,     0.000,    17.837,   -14.269,   1
153319,'1 ',0,   7,  18,     0.000,     0.000,     0.000,     0.000,    17.180,   -13.744,   1
153321,'1 ',0,   7,  18,     0.000,     0.000,     0.000,     0.000,    17.180,   -13.744,   1
153371,'1 ',0,   7,  18,     0.000,     0.000,     0.000,     0.000,     8.909,    -7.637,   1
153373,'1 ',0,   7,  18,     0.000,     0.000,     0.000,     0.000,     8.909,    -6.364,   1
153374,'1 ',1,   7,  18,     0.000,     0.000,     0.000,     0.000,    12.137,   -10.923,   1
153376,'1 ',0,   7,  18,     0.000,     0.000,     0.000,     0.000,    12.728,   -11.455,   1
153377,'1 ',1,   7,  18,     0.000,     0.000,     0.000,     0.000,    11.159,   -10.043,   1
153391,'1 ',1,   7,  18,     0.000,     0.000,     0.000,     0.000,    13.000,   -12.000,   1
153393,'1 ',1,   7,  18,     0.000,     0.000,     0.000,     0.000,    12.225,   -11.284,   1
153447,'1 ',1,   7,  18,     0.000,     0.000,     0.000,     0.000,     3.504,    -3.004,   1
153448,'1 ',0,   7,  18,     0.000,     0.000,     0.000,     0.000,     3.687,    -3.160,   1
153515,'1 ',1,   7,  18,     0.000,     0.000,     0.000,     0.000,     9.000,    -8.000,   1
153517,'1 ',1,   7,  18,     0.000,     0.000,     0.000,     0.000,     9.000,    -8.000,   1
153518,'1 ',1,   7,  18,     0.000,     0.000,     0.000,     0.000,     9.000,    -8.000,   1
153519,'1 ',1,   7,  18,     0.000,     0.000,     0.000,     0.000,     9.641,    -8.570,   1
153521,'1 ',1,   7,  18,     0.000,     0.000,     0.000,     0.000,    20.406,   -20.406,   1
153523,'1 ',1,   7,  18,     0.000,     0.000,     0.000,     0.000,    20.406,   -20.406,   1
153559,'1 ',0,   7,  18,     0.000,     0.000,     0.000,     0.000,     9.354,    -7.275,   1
153562,'1 ',0,   7,  18,     0.000,     0.000,     0.000,     0.000,     9.354,    -7.275,   1
153564,'1 ',1,   7,  18,     0.000,     0.000,     0.000,     0.000,    10.000,    -9.000,   1
153565,'1 ',0,   7,  18,     0.000,     0.000,     0.000,     0.000,    10.393,    -9.354,   1
153567,'1 ',1,   7,  18,     0.000,     0.000,     0.000,     0.000,     4.000,    -3.500,   1
153569,'1 ',0,   7,  18,     0.000,     0.000,     0.000,     0.000,     7.000,    -6.000,   1
153573,'1 ',1,   7,  18,     0.000,     0.000,    65.372,   193.100,    73.767,   145.264,   1
153574,'1 ',1,   7,  18,     0.000,     0.000,     0.000,     0.000,     9.614,    -8.546,   1
153577,'1 ',0,   7,  18,     0.000,     0.000,     0.000,     0.000,    10.112,    -8.989,   1
153579,'1 ',1,   7,  18,     0.000,     0.000,     0.000,     0.000,    18.000,   -18.000,   1
153580,'1 ',1,   7,  18,     0.000,     0.000,     0.000,     0.000,    18.000,   -18.000,   1
153624,'1 ',1,   7,  18,     0.000,     0.000,     0.000,     0.000,    10.000,    -9.000,   1
153626,'1 ',0,   7,  18,     0.000,     0.000,     0.000,     0.000,    10.951,    -9.856,   1
153700,'1 ',1,   7,  18,     0.000,     0.000,     0.000,     0.000,    20.000,   -18.000,   1
153702,'1 ',1,   7,  18,     0.000,     0.000,     0.000,     0.000,    20.000,   -18.000,   1
153705,'1 ',1,   7,  18,     0.000,     0.000,     0.000,     0.000,    20.406,   -20.406,   1
153706,'1 ',1,   7,  18,     0.000,     0.000,     0.000,     0.000,    20.406,   -20.406,   1
153716,'1 ',1,   7,  18,     0.000,     0.000,     0.000,     0.000,    40.812,   -40.812,   1
153718,'1 ',1,   7,  18,     0.000,     0.000,     0.000,     0.000,    40.812,   -40.812,   1
153719,'1 ',1,   7,  18,     0.000,     0.000,     0.000,     0.000,    45.914,   -45.914,   1
153720,'1 ',1,   7,  18,     0.000,     0.000,     0.000,     0.000,    45.914,   -45.914,   1
153722,'1 ',1,   7,  18, -1546.800,   925.500,     0.000,     0.000,     0.000,     0.000,   1
153761,'1 ',1,   7,  18,     0.000,     0.000,     0.000,     0.000,    18.000,   -18.000,   1
153762,'1 ',0,   7,  18,     0.000,     0.000,     0.000,     0.000,    20.123,   -20.123,   1
153763,'1 ',0,   7,  18,     0.000,     0.000,     0.000,     0.000,    20.316,   -20.316,   1
153764,'1 ',0,   7,  18,     0.000,     0.000,     0.000,     0.000,    20.316,   -20.316,   1
153765,'1 ',1,   7,  18,     0.000,     0.000,     0.000,     0.000,     9.575,    -8.511,   1
153766,'1 ',1,   7,  18,     0.000,     0.000,     0.000,     0.000,    10.997,    -9.775,   1
153767,'1 ',0,   7,  18,     0.000,     0.000,     0.000,     0.000,    10.826,    -9.623,   1
153855,'1 ',1,   7,  18,     0.000,     0.000,     0.000,     0.000,    38.000,   -38.000,   1
153856,'1 ',0,   7,  18,     0.000,     0.000,     0.000,     0.000,    38.829,   -38.829,   1
154000,'1 ',1,   7,  34,     0.000,     0.000,    73.303,   206.260,    83.967,   157.510,   1
154001,'1 ',1,   7,  34,     0.000,     0.000,    25.143,    69.395,    27.597,    50.778,   1
154003,'1 ',1,   7,  34,     0.000,     0.000,    70.419,   209.780,    80.997,   160.861,   1
154004,'1 ',1,   7,  34,     0.000,     0.000,    89.101,   252.453,   105.185,   198.684,   1
154005,'1 ',1,   7,  34,     0.000,     0.000,    30.013,    84.037,    32.129,    59.974,   1
...
0 / END OF LOAD DATA, BEGIN FIXED SHUNT DATA
127100,'1 ',1,     0.000,  -109.339
129133,'1 ',1,     0.000,  -109.339
151801,'1 ',1,     0.000,    16.050
151808,'1 ',1,     0.000,    37.287
151815,'1 ',1,     0.000,    19.421
151836,'1 ',1,     0.000,    12.429
151840,'1 ',1,     0.000,    12.947
151840,'2 ',1,     0.000,    12.947
151844,'1 ',1,     0.000,    19.421
151844,'2 ',1,     0.000,    12.947
151848,'1 ',1,     0.000,    10.700
151848,'2 ',1,     0.000,    10.700
151848,'3 ',1,     0.000,    10.700
151848,'4 ',1,     0.000,    10.700
151848,'5 ',1,     0.000,    10.700
151866,'1 ',0,     0.000,    67.893
151866,'2 ',1,     0.000,    72.646
151866,'3 ',0,     0.000,   -72.599
151866,'4 ',0,     0.000,   -72.599
151883,'1 ',1,     0.000,    15.536
151883,'2 ',1,     0.000,    15.536
151887,'1 ',1,     0.000,    31.073
151887,'2 ',1,     0.000,    31.073
151891,'1 ',1,     0.000,    26.412
151895,'1 ',1,     0.000,    24.858
151895,'2 ',1,     0.000,    12.429
151898,'1 ',0,     0.000,   -74.719
151898,'2 ',1,     0.000,    68.669
151899,'1 ',1,     0.000,    68.669
151906,'1 ',1,     0.000,  -136.509
151913,'1 ',1,     0.000,    10.700
151913,'2 ',1,     0.000,    10.700
151913,'3 ',1,     0.000,    10.700
151917,'1 ',1,     0.000,    12.947
151917,'2 ',1,     0.000,    12.947
151921,'1 ',1,     0.000,    12.429
151939,'1 ',1,     0.000,    12.947
151939,'2 ',1,     0.000,    12.947
151943,'1 ',1,     0.000,    10.700
151943,'2 ',1,     0.000,    10.700
151947,'1 ',1,     0.000,    12.947
151958,'1 ',1,     0.000,    10.700
151958,'2 ',1,     0.000,    10.700
151958,'3 ',1,     0.000,    10.700
151961,'1 ',1,     0.000,    19.421
151966,'1 ',0,     0.000,   -72.599
151966,'2 ',1,     0.000,    77.683
151966,'3 ',0,     0.000,    72.601
151974,'1 ',1,     0.000,     8.807
151981,'1 ',1,     0.000,    15.559
151986,'1 ',1,     0.000,    16.050
151986,'2 ',1,     0.000,    16.050
151987,'1 ',1,     0.000,    17.615
151994,'1 ',0,     0.000,   -74.719
151994,'2 ',1,     0.000,    72.646
151995,'1 ',0,     0.000,   -74.719
151995,'2 ',0,     0.000,    67.893
152006,'1 ',1,     0.000,    23.487
152026,'1 ',1,     0.000,    50.000
152027,'1 ',1,     0.000,    11.235
152027,'2 ',1,     0.000,    11.235
152034,'1 ',1,     0.000,    16.050
152047,'1 ',1,     0.000,    12.947
152052,'1 ',1,     0.000,    24.858
152053,'1 ',1,     0.000,    19.587
152064,'1 ',1,     0.000,    10.700
152064,'2 ',1,     0.000,    10.700
152089,'1 ',1,     0.000,    11.743
152096,'1 ',1,     0.000,    16.050
152096,'2 ',1,     0.000,    16.050
152100,'1 ',1,     0.000,    12.949
152100,'2 ',1,     0.000,    12.949
152104,'1 ',1,     0.000,    21.366
152104,'2 ',1,     0.000,    10.700
152112,'1 ',1,     0.000,    25.894
152117,'1 ',1,     0.000,    24.858
152124,'1 ',1,     0.000,    10.700
152124,'2 ',1,     0.000,    10.700
152129,'1 ',1,     0.000,    19.421
152129,'2 ',1,     0.000,    19.421
152129,'3 ',1,     0.000,    19.421
152129,'4 ',1,     0.000,    19.421
152133,'1 ',1,     0.000,    12.429
152133,'2 ',1,     0.000,    12.429
152162,'1 ',1,     0.000,    38.841
152166,'1 ',1,     0.000,    19.421
152166,'2 ',1,     0.000,    19.421
152169,'1 ',1,     0.000,    12.958
152170,'1 ',1,     0.000,     8.025
152177,'1 ',1,     0.000,    12.840
152177,'2 ',1,     0.000,    12.840
152177,'3 ',1,     0.000,    12.840
152205,'1 ',1,     0.000,    77.683
152205,'2 ',1,     0.000,    77.683
152210,'1 ',1,     0.000,    24.858
152210,'2 ',1,     0.000,    24.858
152221,'1 ',1,     0.000,    24.858
152221,'2 ',1,     0.000,    24.858
152221,'3 ',1,     0.000,    12.840
152221,'4 ',1,     0.000,    12.840
152233,'1 ',0,     0.000,  -108.900
152258,'1 ',1,     0.000,  -109.339
152261,'1 ',1,     0.000,    25.894
152266,'1 ',1,     0.000,    12.947
152266,'2 ',1,     0.000,    12.947
152266,'3 ',1,     0.000,    19.421
152270,'1 ',1,     0.000,    25.915
152270,'2 ',1,     0.000,    25.915
152307,'1 ',1,     0.000,    19.421
152308,'1 ',1,     0.000,     8.848
152314,'1 ',1,     0.000,    12.947
152317,'1 ',0,     0.000,  -108.900
152318,'1 ',1,     0.000,    77.683
152318,'2 ',1,     0.000,    77.683
152318,'3 ',0,     0.000,   -74.719
152347,'1 ',1,     0.000,    21.400
152364,'1 ',1,     0.000,    25.894
152364,'2 ',1,     0.000,    25.894
152368,'1 ',1,     0.000,    10.272
152374,'1 ',1,     0.000,    12.947
152379,'1 ',1,     0.000,    24.858
152382,'1 ',1,     0.000,    19.421
152382,'2 ',1,     0.000,    19.421
152386,'1 ',1,     0.000,    18.644
152386,'2 ',1,     0.000,    18.644
152386,'3 ',1,     0.000,    18.644
152386,'4 ',1,     0.000,    18.644
152391,'1 ',1,     0.000,    24.858
152391,'2 ',1,     0.000,    24.858
152395,'1 ',1,     0.000,    24.858
152395,'2 ',1,     0.000,    24.858
152413,'1 ',1,     0.000,    12.840
152413,'2 ',1,     0.000,    12.840
152417,'1 ',1,     0.000,    38.841
152426,'1 ',0,     0.000,   -74.719
152426,'2 ',0,     0.000,   -74.719
152426,'3 ',0,     0.000,    72.601
152469,'1 ',1,     0.000,    24.858
152472,'1 ',0,     0.000,   -74.719
152472,'2 ',0,     0.000,    67.893
152473,'1 ',0,     0.000,   -74.719
152473,'2 ',0,     0.000,   -74.719
152473,'3 ',1,     0.000,    72.646
152473,'4 ',0,     0.000,    67.893
152480,'1 ',1,     0.000,  -136.509
152483,'1 ',1,     0.000,    10.700
152483,'2 ',1,     0.000,    10.700
152487,'1 ',0,     0.000,    67.893
152487,'2 ',0,     0.000,   -74.719
152487,'3 ',0,     0.000,   -74.719
152487,'4 ',0,     0.000,   -74.719
152488,'1 ',0,     0.000,   -74.719
152488,'2 ',0,     0.000,   -74.719
152488,'3 ',0,     0.000,   -74.719
152500,'1 ',0,     0.000,   -74.719
152500,'2 ',1,     0.000,    72.646
152500,'3 ',1,     0.000,    72.646
152501,'1 ',0,     0.000,   -74.719
152501,'2 ',0,     0.000,   -74.719
152501,'3 ',1,     0.000,    72.646
152502,'1 ',1,     0.000,    72.646
152508,'1 ',1,     0.000,   142.000
152509,'1 ',1,     0.000,    11.979
152516,'1 ',1,     0.000,    19.421
152516,'2 ',1,     0.000,    19.421
152520,'1 ',1,     0.000,    19.421
152520,'2 ',1,     0.000,    19.421
152524,'1 ',1,     0.000,    12.947
152524,'2 ',1,     0.000,    12.947
152524,'3 ',1,     0.000,    12.947
152542,'1 ',1,     0.000,    10.700
152542,'2 ',1,     0.000,    10.700
152546,'1 ',1,     0.000,    12.947
152549,'1 ',1,     0.000,    12.958
152549,'2 ',1,     0.000,    12.958
152585,'1 ',0,     0.000,   -74.719
152585,'2 ',0,     0.000,   -74.719
152586,'1 ',0,     0.000,   -74.719
152586,'2 ',0,     0.000,   -72.599
152593,'1 ',1,     0.000,  -109.339
152608,'1 ',1,     0.000,    16.050
152613,'1 ',1,     0.000,    10.700
152613,'2 ',1,     0.000,    10.700
152618,'1 ',1,     0.000,    25.894
152622,'1 ',0,     0.000,   -72.599
152622,'2 ',1,     0.000,    77.683
152622,'3 ',0,     0.000,    72.601
152623,'1 ',0,     0.000,   -72.599
152623,'2 ',0,     0.000,    72.601
152623,'3 ',1,     0.000,    77.683
152630,'1 ',1,     0.000,    16.050
152630,'2 ',1,     0.000,    16.050
152630,'3 ',1,     0.000,    16.050
152651,'1 ',1,     0.000,    12.947
152652,'1 ',1,     0.000,    21.400
152658,'1 ',1,     0.000,    12.947
152668,'1 ',0,     0.000,   -74.719
152668,'2 ',0,     0.000,   -74.719
152668,'3 ',1,     0.000,    77.683
152669,'1 ',0,     0.000,   -74.719
...
0 / END OF FIXED SHUNT DATA, BEGIN GENERATOR DATA
127100,'1 ',-11163.807,  6993.015,  9999.000, -9999.000,1.00000,     0, 10000.000, 0.00000E+0, 1.70000E-1, 0.00000E+0, 0.00000E+0,1.00000,1,  100.0,  9999.000, -9999.000,   1,1.0000
129133,'1 ',  2000.000,  1755.525,  9999.000, -9999.000,1.00000,     0, 10000.000, 0.00000E+0, 1.70000E-1, 0.00000E+0, 0.00000E+0,1.00000,1,  100.0,  9999.000, -9999.000,   1,1.0000
151809,'1 ',   660.000,   300.000,   320.000,     0.000,1.00000,     0,   733.300, 0.00000E+0, 2.05000E-1, 0.00000E+0, 0.00000E+0,1.00000,0,  100.0,   660.000,   360.000,   1,1.0000
151818,'1 ',   145.000,   127.617,    84.000,     0.000,1.00000,     0,   170.588, 0.00000E+0, 1.40000E-1, 0.00000E+0, 0.00000E+0,1.00000,0,  100.0,   145.000,    80.000,   1,1.0000
151820,'1 ',   145.000,    55.000,    84.000,     0.000,1.00000,     0,   170.588, 0.00000E+0, 1.40000E-1, 0.00000E+0, 0.00000E+0,1.00000,0,  100.0,   145.000,    80.000,   1,1.0000
151822,'1 ',   300.000,   186.000,   186.000,     0.000,1.00000,     0,   352.940, 0.00000E+0, 1.60000E-1, 0.00000E+0, 0.00000E+0,1.00000,1,  100.0,   300.000,   150.000,   1,1.0000
151823,'1 ',   300.000,   160.475,   186.000,     0.000,1.00000,     0,   352.940, 0.00000E+0, 1.60000E-1, 0.00000E+0, 0.00000E+0,1.00000,0,  100.0,   300.000,   150.000,   1,1.0000
151925,'1 ',   155.000,    95.370,    84.000,     0.000,0.99000,     0,   182.353, 0.00000E+0, 1.31000E-1, 0.00000E+0, 0.00000E+0,1.00000,0,  100.0,   155.000,    90.000,   1,1.0000
151932,'1 ',   125.000,    70.749,    77.000,     0.000,1.00000,     0,   147.000, 0.00000E+0, 1.80000E-1, 0.00000E+0, 0.00000E+0,1.00000,0,  100.0,   125.000,    70.000,   1,1.0000
151933,'1 ',   125.000,    77.000,    77.000,     0.000,1.00000,     0,   147.000, 0.00000E+0, 1.80000E-1, 0.00000E+0, 0.00000E+0,1.00000,1,  100.0,   125.000,    70.000,   1,1.0000
151935,'1 ',   125.000,    77.000,    77.000,     0.000,1.00000,     0,   147.000, 0.00000E+0, 1.80000E-1, 0.00000E+0, 0.00000E+0,1.00000,0,  100.0,   125.000,    70.000,   1,1.0000
151936,'1 ',   125.000,    60.000, 99900.000,-99900.000,1.00000,     0,   147.000, 0.00000E+0, 1.80000E-1, 0.00000E+0, 0.00000E+0,1.00000,0,  100.0,   125.000,    70.000,   1,1.0000
152017,'1 ',   150.000,    67.000,    67.000,    67.000,0.99000,     0,   176.470, 0.00000E+0, 1.91500E-1, 0.00000E+0, 0.00000E+0,1.00000,0,  100.0,   150.000,   100.000,   1,1.0000
152019,'1 ',   150.000,    66.000,    66.000,    66.000,0.99000,     0,   176.470, 0.00000E+0, 1.91500E-1, 0.00000E+0, 0.00000E+0,1.00000,0,  100.0,   150.000,   100.000,   1,1.0000
152020,'1 ',   220.000,    90.000,    90.000,    90.000,0.99000,     0,   258.824, 0.00000E+0, 1.20000E-1, 0.00000E+0, 0.00000E+0,1.00000,1,  100.0,   220.000,   140.000,   1,1.0000
152021,'1 ',   220.000,    90.000,    90.000,    90.000,0.99000,     0,   258.824, 0.00000E+0, 1.20000E-1, 0.00000E+0, 0.00000E+0,1.00000,1,  100.0,   220.000,   140.000,   1,1.0000
152074,'1 ',   650.000,   290.000,   290.000,     0.000,1.00000,     0,   722.222, 0.00000E+0, 2.05000E-1, 0.00000E+0, 0.00000E+0,1.00000,1,  100.0,   650.000,   300.000,   1,1.0000
152076,'1 ',   650.000,   290.000,   290.000,     0.000,1.00000,     0,   722.222, 0.00000E+0, 2.05000E-1, 0.00000E+0, 0.00000E+0,1.00000,1,  100.0,   650.000,   300.000,   1,1.0000
152191,'1 ',   125.000,    77.000,    77.000,     0.000,1.00000,     0,   147.000, 0.00000E+0, 1.80000E-1, 0.00000E+0, 0.00000E+0,1.00000,1,  100.0,   125.000,    85.000,   1,1.0000
152194,'1 ',   125.000,    77.000,    77.000,     0.000,1.00000,     0,   147.000, 0.00000E+0, 1.80000E-1, 0.00000E+0, 0.00000E+0,1.00000,1,  100.0,   125.000,    85.000,   1,1.0000
152196,'1 ',   300.000,   184.643,   186.000,     0.000,1.00000,     0,   353.000, 0.00000E+0, 1.60000E-1, 0.00000E+0, 0.00000E+0,1.00000,1,  100.0,   300.000,   180.000,   1,1.0000
152197,'1 ',   300.000,   115.636,   186.000,     0.000,1.00000,     0,   353.000, 0.00000E+0, 1.60000E-1, 0.00000E+0, 0.00000E+0,1.00000,0,  100.0,   300.000,   180.000,   1,1.0000
152198,'1 ',   330.000,   167.453,   186.000,     0.000,1.00000,     0,   388.235, 0.00000E+0, 1.69300E-1, 0.00000E+0, 0.00000E+0,1.00000,1,  100.0,   330.000,   165.000,   1,1.0000
152200,'1 ',   330.000,   110.690,   186.000,     0.000,1.00000,     0,   388.235, 0.00000E+0, 1.69300E-1, 0.00000E+0, 0.00000E+0,1.00000,0,  100.0,   330.000,   165.000,   1,1.0000
152230,'1 ',   330.000,   112.264,   186.000,     0.000,1.00000,     0,   388.235, 0.00000E+0, 1.62500E-1, 0.00000E+0, 0.00000E+0,1.00000,0,  100.0,   330.000,   182.000,   1,1.0000
152232,'1 ',   320.000,   111.224,   186.000,     0.000,1.00000,     0,   376.471, 0.00000E+0, 1.62500E-1, 0.00000E+0, 0.00000E+0,1.00000,0,  100.0,   320.000,   165.000,   1,1.0000
152234,'1 ',   300.000,   186.000,   186.000,     0.000,1.00000,     0,   353.000, 0.00000E+0, 1.62500E-1, 0.00000E+0, 0.00000E+0,1.00000,1,  100.0,   300.000,   165.000,   1,1.0000
152235,'1 ',   320.000,   186.000,   186.000,     0.000,1.00000,     0,   376.471, 0.00000E+0, 1.62500E-1, 0.00000E+0, 0.00000E+0,1.00000,1,  100.0,   320.000,   165.000,   1,1.0000
152242,'1 ',   700.000,   320.000,   320.000,     0.000,1.00000,     0,   777.778, 0.00000E+0, 2.05000E-1, 0.00000E+0, 0.00000E+0,1.00000,1,  100.0,   700.000,   400.000,   1,1.0000
152244,'1 ',   700.000,   140.377,   320.000,     0.000,1.00000,     0,   777.778, 0.00000E+0, 2.05000E-1, 0.00000E+0, 0.00000E+0,1.00000,0,  100.0,   700.000,   400.000,   1,1.0000
152251,'1 ',   155.000,    84.000,    84.000,     0.000,0.99000,     0,   182.353, 0.00000E+0, 1.93100E-1, 0.00000E+0, 0.00000E+0,1.00000,1,  100.0,   155.000,    90.000,   1,1.0000
152253,'1 ',   155.000,    84.000,    84.000,     0.000,1.00000,     0,   182.353, 0.00000E+0, 1.93100E-1, 0.00000E+0, 0.00000E+0,1.00000,1,  100.0,   155.000,    90.000,   1,1.0000
152254,'1 ',   155.000,    84.000,    84.000,     0.000,0.99000,     0,   182.353, 0.00000E+0, 1.93100E-1, 0.00000E+0, 0.00000E+0,1.00000,0,  100.0,   155.000,    90.000,   1,1.0000
152281,'1 ',   225.000,   124.000,   124.000,     0.000,1.00000,     0,   264.700, 0.00000E+0, 1.79000E-1, 0.00000E+0, 0.00000E+0,1.00000,1,  100.0,   225.000,   124.000,   1,1.0000
152282,'1 ',   225.000,   124.000,   124.000,     0.000,1.00000,     0,   264.700, 0.00000E+0, 1.79000E-1, 0.00000E+0, 0.00000E+0,1.00000,1,  100.0,   225.000,   124.000,   1,1.0000
152283,'1 ',   670.000,   320.000,   320.000,     0.000,1.00000,     0,   744.444, 0.00000E+0, 2.05000E-1, 0.00000E+0, 0.00000E+0,1.00000,1,  100.0,   670.000,   330.000,   1,1.0000
152286,'1 ',   670.000,   320.000,   320.000,     0.000,1.00000,     0,   744.444, 0.00000E+0, 2.05000E-1, 0.00000E+0, 0.00000E+0,1.00000,1,  100.0,   670.000,   360.000,   1,1.0000
152290,'1 ',   350.000,   140.000,   186.000,     0.000,1.00000,     0,   411.765, 0.00000E+0, 1.66000E-1, 0.00000E+0, 0.00000E+0,1.00000,0,  100.0,   350.000,   180.000,   1,1.0000
152297,'1 ',   330.000,   186.000,   186.000,     0.000,1.00000,     0,   388.235, 0.00000E+0, 1.91500E-1, 0.00000E+0, 0.00000E+0,1.00000,1,  100.0,   330.000,   182.000,   1,1.0000
152298,'1 ',   330.000,   186.000,   186.000,     0.000,1.00000,     0,   388.235, 0.00000E+0, 1.91500E-1, 0.00000E+0, 0.00000E+0,1.00000,0,  100.0,   330.000,   182.000,   1,1.0000
152299,'1 ',   350.000,   140.000,   186.000,     0.000,1.00000,     0,   411.765, 0.00000E+0, 1.66000E-1, 0.00000E+0, 0.00000E+0,1.00000,0,  100.0,   350.000,   180.000,   1,1.0000
152326,'1 ',   350.000,   131.271,   186.000,     0.000,1.00000,     0,   411.765, 0.00000E+0, 1.85000E-1, 0.00000E+0, 0.00000E+0,1.00000,1,  100.0,   350.000,   180.000,   1,1.0000
152329,'1 ',   350.000,   131.271,   186.000,     0.000,1.00000,     0,   411.765, 0.00000E+0, 1.85000E-1, 0.00000E+0, 0.00000E+0,1.00000,1,  100.0,   350.000,   180.000,   1,1.0000
152334,'1 ',   135.000,    84.000,    84.000,     0.000,1.00000,     0,   158.824, 0.00000E+0, 1.41700E-1, 0.00000E+0, 0.00000E+0,1.00000,1,  100.0,   135.000,    80.000,   1,1.0000
152336,'1 ',   135.000,    55.620,    84.000,     0.000,1.00000,     0,   158.824, 0.00000E+0, 1.41700E-1, 0.00000E+0, 0.00000E+0,1.00000,0,  100.0,   135.000,    80.000,   1,1.0000
152339,'1 ',   330.000,   124.200,   186.000,     0.000,0.99000,     0,   388.235, 0.00000E+0, 1.40000E-1, 0.00000E+0, 0.00000E+0,1.00000,1,  100.0,   330.000,   165.000,   1,1.0000
152340,'1 ',   330.000,    22.245,   186.000,     0.000,0.99000,     0,   388.235, 0.00000E+0, 1.40000E-1, 0.00000E+0, 0.00000E+0,1.00000,0,  100.0,   330.000,   165.000,   1,1.0000
152353,'1 ',   150.000,    84.000,    84.000,     0.000,1.00000,     0,   176.470, 0.00000E+0, 2.17800E-1, 0.00000E+0, 0.00000E+0,1.00000,1,  100.0,   150.000,   128.000,   1,1.0000
152356,'1 ',   150.000,    84.000,    84.000,     0.000,1.00000,     0,   176.470, 0.00000E+0, 2.17800E-1, 0.00000E+0, 0.00000E+0,1.00000,1,  100.0,   150.000,   128.000,   1,1.0000
152359,'1 ',   135.000,    70.000,    84.000,     0.000,1.00000,     0,   158.824, 0.00000E+0, 1.79000E-1, 0.00000E+0, 0.00000E+0,1.00000,0,  100.0,   135.000,    80.000,   1,1.0000
152405,'1 ',   135.000,    69.836,    84.000,     0.000,1.00000,     0,   158.824, 0.00000E+0, 1.79000E-1, 0.00000E+0, 0.00000E+0,1.00000,1,  100.0,   135.000,    80.000,   1,1.0000
152408,'1 ',   135.000,    43.488,    84.000,     0.000,1.00000,     0,   158.824, 0.00000E+0, 1.79000E-1, 0.00000E+0, 0.00000E+0,1.00000,0,  100.0,   135.000,    80.000,   1,1.0000
152439,'1 ',   300.000,   186.000,   186.000,     0.000,1.00000,     0,   352.940, 0.00000E+0, 1.68000E-1, 0.00000E+0, 0.00000E+0,1.00000,1,  100.0,   300.000,   150.000,   1,1.0000
152441,'1 ',   300.000,   186.000,   186.000,     0.000,1.00000,     0,   352.940, 0.00000E+0, 1.68000E-1, 0.00000E+0, 0.00000E+0,1.00000,1,  100.0,   300.000,   150.000,   1,1.0000
152442,'1 ',   300.000,   129.992,   186.000,     0.000,1.00000,     0,   352.940, 0.00000E+0, 1.74000E-1, 0.00000E+0, 0.00000E+0,1.00000,0,  100.0,   300.000,   150.000,   1,1.0000
152443,'1 ',   300.000,   140.000,   186.000,     0.000,1.00000,     0,   352.940, 0.00000E+0, 1.74000E-1, 0.00000E+0, 0.00000E+0,1.00000,0,  100.0,   300.000,   150.000,   1,1.0000
152453,'1 ',   330.000,   186.000,   186.000,     0.000,1.00000,     0,   366.667, 0.00000E+0, 1.45000E-1, 0.00000E+0, 0.00000E+0,1.00000,1,  100.0,   330.000,   165.000,   1,1.0000
152454,'1 ',   330.000,   186.000,   186.000,     0.000,1.00000,     0,   366.667, 0.00000E+0, 1.57000E-1, 0.00000E+0, 0.00000E+0,1.00000,1,  100.0,   330.000,   165.000,   1,1.0000
152531,'1 ',   145.000,    82.643,    84.000,     0.000,1.00000,     0,   170.588, 0.00000E+0, 1.42000E-1, 0.00000E+0, 0.00000E+0,1.00000,1,  100.0,   145.000,    80.000,   1,1.0000
152533,'1 ',   145.000,    83.643,    84.000,     0.000,1.00000,     0,   170.588, 0.00000E+0, 1.42000E-1, 0.00000E+0, 0.00000E+0,1.00000,1,  100.0,   145.000,    80.000,   1,1.0000
152535,'1 ',   145.000,    84.000,    84.000,     0.000,1.00000,     0,   170.588, 0.00000E+0, 1.95000E-1, 0.00000E+0, 0.00000E+0,1.00000,1,  100.0,   145.000,    80.000,   1,1.0000
152537,'1 ',   145.000,    81.797,    84.000,     0.000,1.00000,     0,   170.588, 0.00000E+0, 1.95000E-1, 0.00000E+0, 0.00000E+0,1.00000,1,  100.0,   145.000,    80.000,   1,1.0000
152558,'1 ',   600.000,   290.000,   290.000,     0.000,0.99000,     0,   666.667, 0.00000E+0, 2.11000E-1, 0.00000E+0, 0.00000E+0,1.00000,1,  100.0,   600.000,   360.000,   1,1.0000
152560,'1 ',   600.000,   277.763,   290.000,     0.000,0.99000,     0,   666.667, 0.00000E+0, 2.11000E-1, 0.00000E+0, 0.00000E+0,1.00000,1,  100.0,   600.000,   360.000,   1,1.0000
152561,'1 ',   650.000,   283.660,   290.000,     0.000,0.99000,     0,   722.222, 0.00000E+0, 2.05000E-1, 0.00000E+0, 0.00000E+0,1.00000,1,  100.0,   650.000,   360.000,   1,1.0000
152562,'1 ',   650.000,   283.660,   290.000,     0.000,0.99000,     0,   722.222, 0.00000E+0, 2.05000E-1, 0.00000E+0, 0.00000E+0,1.00000,1,  100.0,   650.000,   360.000,   1,1.0000
152575,'1 ',   140.000,    84.000,    84.000,     0.000,0.99000,     0,   164.700, 0.00000E+0, 1.42000E-1, 0.00000E+0, 0.00000E+0,1.00000,0,  100.0,   140.000,    77.000,   1,1.0000
152578,'1 ',   140.000,    55.000,    84.000,     0.000,0.99000,     0,   164.700, 0.00000E+0, 1.42000E-1, 0.00000E+0, 0.00000E+0,1.00000,0,  100.0,   140.000,    77.000,   1,1.0000
152579,'1 ',   330.000,   184.160,   186.000,     0.000,1.00000,     0,   388.235, 0.00000E+0, 1.89000E-1, 0.00000E+0, 0.00000E+0,1.00000,1,  100.0,   330.000,   165.000,   1,1.0000
152580,'1 ',   330.000,   139.893,   186.000,     0.000,1.00000,     0,   388.235, 0.00000E+0, 1.89000E-1, 0.00000E+0, 0.00000E+0,1.00000,0,  100.0,   330.000,   165.000,   1,1.0000
152601,'1 ',   140.000,    68.000,    77.000,     0.000,1.00000,     0,   164.706, 0.00000E+0, 1.80000E-1, 0.00000E+0, 0.00000E+0,1.00000,0,  100.0,   140.000,    77.000,   1,1.0000
152603,'1 ',   140.000,    77.000,    77.000,     0.000,1.00000,     0,   164.706, 0.00000E+0, 1.80000E-1, 0.00000E+0, 0.00000E+0,1.00000,0,  100.0,   140.000,    77.000,   1,1.0000
152605,'1 ',   140.000,    84.000,    84.000,     0.000,1.00000,     0,   164.706, 0.00000E+0, 1.49600E-1, 0.00000E+0, 0.00000E+0,1.00000,1,  100.0,   140.000,    77.000,   1,1.0000
152606,'1 ',   140.000,    84.000,    84.000,     0.000,1.00000,     0,   164.706, 0.00000E+0, 1.49600E-1, 0.00000E+0, 0.00000E+0,1.00000,1,  100.0,   140.000,    77.000,   1,1.0000
152607,'1 ',   140.000,    43.851,    84.000,     0.000,1.00000,     0,   164.706, 0.00000E+0, 1.49600E-1, 0.00000E+0, 0.00000E+0,1.00000,0,  100.0,   140.000,    77.000,   1,1.0000
152642,'1 ',   110.000,    60.000,    62.000,     0.000,1.00000,     0,   129.400, 0.00000E+0, 1.71800E-1, 0.00000E+0, 0.00000E+0,1.00000,0,  100.0,   110.000,    55.000,   1,1.0000
152644,'1 ',   220.000,   124.000,   124.000,     0.000,1.00000,     0,   258.824, 0.00000E+0, 1.44300E-1, 0.00000E+0, 0.00000E+0,1.00000,0,  100.0,   220.000,   110.000,   1,1.0000
152645,'1 ',   220.000,   124.000,   124.000,     0.000,1.00000,     0,   258.824, 0.00000E+0, 1.56000E-1, 0.00000E+0, 0.00000E+0,1.00000,1,  100.0,   220.000,   110.000,   1,1.0000
152646,'1 ',   220.000,   124.000,   124.000,     0.000,1.00000,     0,   258.824, 0.00000E+0, 1.56000E-1, 0.00000E+0, 0.00000E+0,1.00000,1,  100.0,   220.000,   110.000,   1,1.0000
152648,'1 ',   220.000,   100.000,   124.000,     0.000,1.00000,     0,   258.820, 0.00000E+0, 1.56000E-1, 0.00000E+0, 0.00000E+0,1.00000,0,  100.0,   220.000,   110.000,   1,1.0000
152660,'1 ',   330.000,   186.000,   186.000,     0.000,1.00000,     0,   388.235, 0.00000E+0, 1.55000E-1, 0.00000E+0, 0.00000E+0,1.00000,1,  100.0,   330.000,   165.000,   1,1.0000
152662,'1 ',   330.000,   180.000,   186.000,     0.000,1.00000,     0,   388.235, 0.00000E+0, 1.55000E-1, 0.00000E+0, 0.00000E+0,1.00000,0,  100.0,   330.000,   165.000,   1,1.0000
152743,'1 ',    71.500,    55.000,    55.000,     0.000,1.00000,     0,    89.375, 0.00000E+0, 1.64400E-1, 0.00000E+0, 0.00000E+0,1.00000,1,  100.0,    71.500,    65.000,   1,1.0000
152745,'1 ',    71.500,    55.000,    55.000,     0.000,1.00000,     0,    89.375, 0.00000E+0, 1.64400E-1, 0.00000E+0, 0.00000E+0,1.00000,1,  100.0,    71.500,    65.000,   1,1.0000
152746,'1 ',   145.000,    84.000,    84.000,     0.000,1.00000,     0,   170.588, 0.00000E+0, 2.17800E-1, 0.00000E+0, 0.00000E+0,1.00000,1,  100.0,   145.000,    80.000,   1,1.0000
152748,'1 ',   145.000,    55.000,    84.000,     0.000,1.00000,     0,   170.588, 0.00000E+0, 2.17800E-1, 0.00000E+0, 0.00000E+0,1.00000,0,  100.0,   145.000,    80.000,   1,1.0000
152779,'1 ',   330.000,   186.000,   186.000,     0.000,1.00000,     0,   388.235, 0.00000E+0, 1.70000E-1, 0.00000E+0, 0.00000E+0,1.00000,0,  100.0,   330.000,   165.000,   1,1.0000
152781,'1 ',   330.000,   180.000,   186.000,     0.000,1.00000,     0,   388.235, 0.00000E+0, 1.70000E-1, 0.00000E+0, 0.00000E+0,1.00000,0,  100.0,   330.000,   165.000,   1,1.0000
152837,'1 ',   300.000,     0.000,   186.000,     0.000,1.00000,     0,   353.000, 0.00000E+0, 2.56400E-1, 0.00000E+0, 0.00000E+0,1.00000,1,  100.0,   300.000,   165.000,   1,1.0000
152839,'1 ',   300.000,   175.000,   186.000,     0.000,1.00000,     0,   353.000, 0.00000E+0, 2.56400E-1, 0.00000E+0, 0.00000E+0,1.00000,0,  100.0,   300.000,   165.000,   1,1.0000
152840,'1 ',   300.000,     0.000,   186.000,     0.000,1.00000,     0,   352.940, 0.00000E+0, 1.60000E-1, 0.00000E+0, 0.00000E+0,1.00000,1,  100.0,   300.000,   150.000,   1,1.0000
152841,'1 ',   300.000,   180.000,   186.000,     0.000,1.00000,     0,   352.940, 0.00000E+0, 1.60000E-1, 0.00000E+0, 0.00000E+0,1.00000,0,  100.0,   300.000,   150.000,   1,1.0000
152874,'1 ',   350.000,   217.000,   217.000,     0.000,1.00000,     0,   411.765, 0.00000E+0, 2.05000E-1, 0.00000E+0, 0.00000E+0,1.00000,1,  100.0,   350.000,   175.000,   1,1.0000
152876,'1 ',   350.000,   217.000,   217.000,     0.000,1.00000,     0,   411.765, 0.00000E+0, 2.05000E-1, 0.00000E+0, 0.00000E+0,1.00000,1,  100.0,   350.000,   175.000,   1,1.0000
152877,'1 ',   680.000,   290.000,   290.000,     0.000,1.00000,     0,   755.556, 0.00000E+0, 2.29000E-1, 0.00000E+0, 0.00000E+0,1.00000,1,  100.0,   680.000,   340.000,   1,1.0000
152878,'1 ',   680.000,   290.000,   290.000,     0.000,1.00000,     0,   755.556, 0.00000E+0, 2.29000E-1, 0.00000E+0, 0.00000E+0,1.00000,1,  100.0,   680.000,   340.000,   1,1.0000
152932,'1 ',   200.000,   124.000,   124.000,     0.000,1.00000,     0,   235.300, 0.00000E+0, 1.81000E-1, 0.00000E+0, 0.00000E+0,1.00000,1,  100.0,   200.000,   120.000,   1,1.0000
152935,'1 ',   200.000,   120.000,   124.000,     0.000,1.00000,     0,   235.300, 0.00000E+0, 1.81000E-1, 0.00000E+0, 0.00000E+0,1.00000,0,  100.0,   200.000,   120.000,   1,1.0000
152937,'1 ',   300.000,   186.000,   186.000,     0.000,1.00000,     0,   352.940, 0.00000E+0, 1.61800E-1, 0.00000E+0, 0.00000E+0,1.00000,1,  100.0,   300.000,   180.000,   1,1.0000
152938,'1 ',   300.000,   135.768,   186.000,     0.000,1.00000,     0,   352.940, 0.00000E+0, 1.61800E-1, 0.00000E+0, 0.00000E+0,1.00000,0,  100.0,   300.000,   180.000,   1,1.0000
152950,'1 ',   220.000,    92.599,   124.000,     0.000,1.00000,     0,   258.824, 0.00000E+0, 1.44400E-1, 0.00000E+0, 0.00000E+0,1.00000,1,  100.0,   220.000,   135.000,   1,1.0000
152952,'1 ',   220.000,    92.599,   124.000,     0.000,1.00000,     0,   258.824, 0.00000E+0, 1.44400E-1, 0.00000E+0, 0.00000E+0,1.00000,1,  100.0,   220.000,   135.000,   1,1.0000
152965,'1 ',   140.000,    72.000,    77.000,     0.000,1.00000,     0,   164.706, 0.00000E+0, 1.80000E-1, 0.00000E+0, 0.00000E+0,1.00000,0,  100.0,   140.000,    70.000,   1,1.0000
152967,'1 ',   330.000,   174.807,   186.000,     0.000,1.00000,     0,   388.235, 0.00000E+0, 1.55000E-1, 0.00000E+0, 0.00000E+0,1.00000,1,  100.0,   330.000,   150.000,   1,1.0000
152968,'1 ',   300.000,   171.920,   186.000,     0.000,1.00000,     0,   352.940, 0.00000E+0, 1.55000E-1, 0.00000E+0, 0.00000E+0,1.00000,1,  100.0,   300.000,   150.000,   1,1.0000
152979,'1 ',   315.000,   180.446,   186.000,     0.000,1.00000,     0,   370.590, 0.00000E+0, 2.56400E-1, 0.00000E+0, 0.00000E+0,1.00000,0,  100.0,   315.000,   165.000,   1,1.0000
152981,'1 ',   315.000,   186.000,   186.000,     0.000,1.00000,     0,   370.590, 0.00000E+0, 2.56400E-1, 0.00000E+0, 0.00000E+0,1.00000,1,  100.0,   315.000,   165.000,   1,1.0000
152982,'1 ',   315.000,   186.000,   186.000,     0.000,1.00000,     0,   370.590, 0.00000E+0, 2.56400E-1, 0.00000E+0, 0.00000E+0,1.00000,1,  100.0,   315.000,   165.000,   1,1.0000
152983,'1 ',   315.000,    83.137,   186.000,     0.000,1.00000,     0,   370.590, 0.00000E+0, 2.56400E-1, 0.00000E+0, 0.00000E+0,1.00000,0,  100.0,   315.000,   165.000,   1,1.0000
152988,'1 ',   330.000,   138.162,   186.000,     0.000,1.00000,     0,   388.235, 0.00000E+0, 1.74000E-1, 0.00000E+0, 0.00000E+0,1.00000,1,  100.0,   330.000,   165.000,   1,1.0000
...